output/Ponda1/Losses.csv
Element,  Total(W), Total(var),  I2R(W), I2X(var), No-load(W), No-load(var)
Line.F01, 30516.22, 19874.72, 30516.22, 19874.72, 0, 0
Line.F02, 12865.1, 8377.511, 12865.1, 8377.511, 0, 0
Line.F03, 10812.56, 7039.088, 10812.56, 7039.088, 0, 0
Line.F04, 12310.21, 8011.797, 12310.21, 8011.797, 0, 0
Line.F05, 753.4413, 490.2024, 753.4413, 490.2024, 0, 0
Line.F06, 3767.212, 2451.029, 3767.212, 2451.029, 0, 0
Line.F07, 5341.672, 3474.514, 5341.672, 3474.514, 0, 0
Line.F08, 680.7185, 442.6091, 680.7185, 442.6091, 0, 0
Line.F09, 3131.31, 2036.016, 3131.31, 2036.016, 0, 0
Line.F10, 2306.996, 1499.418, 2306.996, 1499.418, 0, 0
Line.F11, 2905.313, 1887.659, 2905.313, 1887.659, 0, 0
Line.F12, 578.3899, 375.6351, 578.3899, 375.6351, 0, 0
Line.F13, 5283.46, 3430.289, 5283.46, 3430.289, 0, 0
Line.F14, 5.450865, -71.11303, 5.450865, -71.11303, 0, 0
Line.F15, 524.5133, 340.3749, 524.5133, 340.3749, 0, 0
Line.F16, 885.1198, 559.3124, 885.1198, 559.3124, 0, 0
Line.F17, 885.1198, 559.3124, 885.1198, 559.3124, 0, 0
Line.F18, 3737.17, 2424.106, 3737.17, 2424.106, 0, 0
Line.F19, 3779.978, 2450.687, 3779.978, 2450.687, 0, 0
Line.F20, 3189.37, 2067.812, 3189.37, 2067.812, 0, 0
Line.F21, 1974.928, 1278.913, 1974.928, 1278.913, 0, 0
Line.F22, 1.533556, -1.956356, 1.533556, -1.956356, 0, 0
Line.F23, 2.185267, -28.17098, 2.185267, -28.17098, 0, 0
Line.F24, 4.20354E-7, -29.60071, 4.20354E-7, -29.60071, 0, 0
Line.F25, 420.1983, 272.1115, 420.1983, 272.1115, 0, 0
Line.F26, 0.08526673, -2.900545, 0.08526673, -2.900545, 0, 0
Line.F27, -1.508074E-6, -2.956359, -1.508074E-6, -2.956359, 0, 0
Line.F28, 132.764, 83.9532, 132.764, 83.9532, 0, 0
Line.F29, 452.5172, 278.4917, 452.5172, 278.4917, 0, 0
Line.F30, 377.1007, 232.0863, 377.1007, 232.0863, 0, 0
Line.F31, 297.2757, 179.8385, 297.2757, 179.8385, 0, 0
Line.F32, 130.4558, 78.01936, 130.4558, 78.01936, 0, 0
Line.F33, 64.74113, 36.47832, 64.74113, 36.47832, 0, 0
Line.F34, 48.4114, 25.78934, 48.4114, 25.78934, 0, 0
Line.F35, 302.3193, 146.1413, 302.3193, 146.1413, 0, 0
Line.F36, 200.6591, 79.63163, 200.6591, 79.63163, 0, 0
Line.F37, 200.6724, 79.67498, 200.6724, 79.67498, 0, 0
Line.F38, 712.9211, 437.2611, 712.9211, 437.2611, 0, 0
Line.F39, 356.4646, 218.6437, 356.4646, 218.6437, 0, 0
Line.F40, 612.9562, 371.8636, 612.9562, 371.8636, 0, 0
Line.F41, 444.2614, 261.4575, 444.2614, 261.4575, 0, 0
Line.F42, 205.2416, 117.0402, 205.2416, 117.0402, 0, 0
Line.F43, 212.9824, 111.5555, 212.9824, 111.5555, 0, 0
Line.F44, 12.75967, 5.420216, 12.75967, 5.420216, 0, 0
Line.F45, 24.23813, -7.590761, 24.23813, -7.590761, 0, 0
Line.F46, 11.75112, -50.94135, 11.75112, -50.94135, 0, 0
Line.F47, 11.75504, -50.92859, 11.75504, -50.92859, 0, 0
Line.F48, 1098.259, 690.8718, 1098.259, 690.8718, 0, 0
Line.F49, 18.41566, -13.92565, 18.41566, -13.92565, 0, 0
Line.F50, 8.882282, -38.46495, 8.882282, -38.46495, 0, 0
Line.F51, 6.934578E-7, -73.79424, 6.934578E-7, -73.79424, 0, 0
Line.F52, 974.1676, 604.5082, 974.1676, 604.5082, 0, 0
Line.F53, 473.6385, 290.888, 473.6385, 290.888, 0, 0
Line.F54, 73.20353, 18.45224, 73.20353, 18.45224, 0, 0
Line.F55, 1.829942, -1.748406, 1.829942, -1.748406, 0, 0
Line.F56, 5.45128E-7, -58.92591, 5.45128E-7, -58.92591, 0, 0
Line.F57, 220.9812, 125.5047, 220.9812, 125.5047, 0, 0
Line.F58, 269.0375, 145.1926, 269.0375, 145.1926, 0, 0
Transformer.T24, 2184.003, 3469.814, 2184.003, 3469.814, 0, 0
Transformer.T25, 3997.476, 6350.789, 3997.476, 6350.789, 0, 0
Transformer.T26, 3976.046, 6316.743, 3976.046, 6316.743, 0, 0
Transformer.T27, 2220.604, 3527.957, 2220.604, 3527.957, 0, 0
Transformer.T28, 3958.228, 6288.435, 3958.228, 6288.435, 0, 0
Transformer.T29, 3951.078, 6277.075, 3951.078, 6277.075, 0, 0
Transformer.T30, 1789.017, 2842.276, 1789.017, 2842.276, 0, 0
Transformer.T31, 3049.755, 4845.187, 3049.755, 4845.187, 0, 0
Transformer.T32, 3040.383, 4830.298, 3040.383, 4830.298, 0, 0
Transformer.T33, 2943.01, 4675.558, 2943.01, 4675.558, 0, 0
Transformer.T34, 2232.15, 3546.298, 2232.15, 3546.298, 0, 0
Transformer.T35, 3900.071, 6196.041, 3900.071, 6196.041, 0, 0
Transformer.T36, 1793.174, 2848.878, 1793.174, 2848.878, 0, 0
Transformer.T37, 3893.895, 6186.23, 3893.895, 6186.23, 0, 0
Transformer.T38, 1119.087, 1777.932, 1119.087, 1777.932, 0, 0
Transformer.T39, 3886.041, 6173.752, 3886.041, 6173.752, 0, 0
Transformer.T40, 3886.519, 6174.51, 3886.519, 6174.51, 0, 0
Transformer.T41, 4903.622, 7790.736, 4903.622, 7790.736, 0, 0
Transformer.T42, 1556.365, 2472.709, 1556.365, 2472.709, 0, 0
Transformer.T43, 3111.305, 4943.155, 3111.305, 4943.155, 0, 0
Transformer.T44, 3009.079, 4780.565, 3009.079, 4780.565, 0, 0
Transformer.T45, 3887.759, 6176.481, 3887.759, 6176.481, 0, 0
Transformer.T46, 3883.858, 6170.284, 3883.858, 6170.284, 0, 0
Transformer.T47, 3882.508, 6168.14, 3882.508, 6168.14, 0, 0
Transformer.T48, 6005.231, 9540.593, 6005.231, 9540.593, 0, 0
Transformer.T49, 6005.13, 9540.431, 6005.13, 9540.431, 0, 0
Transformer.T50, 3879.331, 6163.092, 3879.331, 6163.092, 0, 0
Transformer.T51, 3096.46, 4919.345, 3096.46, 4919.345, 0, 0
Transformer.T52, 4444.764, 7061.553, 4444.764, 7061.553, 0, 0
Transformer.T53, 4439.124, 7052.593, 4439.124, 7052.593, 0, 0
Transformer.T54, 3863.61, 6138.116, 3863.61, 6138.116, 0, 0
Transformer.T55, 4436.624, 7048.622, 4436.624, 7048.622, 0, 0
Transformer.T56, 6987.509, 11101.3, 6987.509, 11101.3, 0, 0
Transformer.T57, 3113.866, 4947.22, 3113.866, 4947.22, 0, 0
Transformer.T58, 3857.425, 6128.289, 3857.425, 6128.289, 0, 0
Transformer.T59, 3.422833E-9, 0.3810114, 3.422833E-9, 0.3810114, 0, 0
Transformer.T61, 3983.526, 6328.627, 3983.526, 6328.627, 0, 0
Transformer.T62, 2249.079, 3573.191, 2249.079, 3573.191, 0, 0
